<?xml version="1.0" encoding="UTF-8"?>

<!-- generated on 2025-05-04 13:36:44 by Eclipse SUMO netedit Version 1.22.0
-->

<routes xmlns:xsi="http://www.w3.org/2001/XMLSchema-instance" xsi:noNamespaceSchemaLocation="http://sumo.dlr.de/xsd/routes_file.xsd">
    <!-- Routes -->
    <route id="r_0" edges="-E3 E5 E4 -E2"/>
    <route id="r_1" edges="E0 E6 E3"/>
    <route id="r_2" edges="-E1 E4 E7 -E0"/>
    <route id="r_3" edges="-E3 E5 E1"/>
    <route id="r_4" edges="E2 E7 E6 E3"/>
    <!-- Vehicles, persons and containers (sorted by depart) -->
    <vehicle id="v_0" depart="0.00" color="0,72,255" route="r_1"/>
    <vehicle id="v_1" depart="0.00" route="r_0"/>
    <vehicle id="v_2" depart="0.00" color="128,67,0" route="r_3"/>
    <vehicle id="v_3" depart="0.00" route="r_3"/>
    <vehicle id="v_4" depart="0.00" route="r_0"/>
    <vehicle id="v_5" depart="0.00" route="r_2"/>
    <vehicle id="v_6" depart="0.00" color="255,44,0" route="r_4"/>
</routes>
