<?xml version="1.0" encoding="UTF-8"?>

<!-- generated on 2025-05-04 13:37:34 by Eclipse SUMO sumo Version 1.22.0
-->

<sumoConfiguration xmlns:xsi="http://www.w3.org/2001/XMLSchema-instance" xsi:noNamespaceSchemaLocation="http://sumo.dlr.de/xsd/sumoConfiguration.xsd">

    <input>
        <net-file value="route_deux_voies.net.xml"/>
        <route-files value="deux_voies.rou.xml"/>
    </input>

</sumoConfiguration>
