<?xml version="1.0" encoding="UTF-8"?>

<!-- generated on 2025-05-04 13:37:11 by Eclipse SUMO netedit Version 1.22.0
<neteditConfiguration xmlns:xsi="http://www.w3.org/2001/XMLSchema-instance" xsi:noNamespaceSchemaLocation="http://sumo.dlr.de/xsd/neteditConfiguration.xsd">

    <input>
        <route-files value="/home/laureoby/Documents/SUMO/Test_giratoire2/deux_voies.rou.xml"/>
        <sumo-net-file value="/home/laureoby/Documents/SUMO/Test_giratoire2/route_deux_voies.net.xml"/>
    </input>

    <output>
        <output-file value="/home/laureoby/Documents/SUMO/Test_giratoire2/route_deux_voies.net.xml"/>
        <output.street-names value="true"/>
    </output>

    <processing>
        <offset.disable-normalization value="true"/>
    </processing>

    <junctions>
        <no-turnarounds value="true"/>
    </junctions>

    <netedit>
        <new-network value="false"/>
    </netedit>

</neteditConfiguration>
-->

<net version="1.20" junctionCornerDetail="5" limitTurnSpeed="5.50" xmlns:xsi="http://www.w3.org/2001/XMLSchema-instance" xsi:noNamespaceSchemaLocation="http://sumo.dlr.de/xsd/net_file.xsd">

    <location netOffset="0.00,0.00" convBoundary="-100.00,-100.00,100.00,100.00" origBoundary="10000000000.00,10000000000.00,-10000000000.00,-10000000000.00" projParameter="!"/>

    <edge id=":J5_0" function="internal">
        <lane id=":J5_0_0" index="0" speed="6.55" length="7.80" shape="-1.60,20.91 -1.88,18.84 -2.73,17.24 -4.14,16.10 -6.11,15.42"/>
    </edge>
    <edge id=":J5_1" function="internal">
        <lane id=":J5_1_0" index="0" speed="6.55" length="7.80" shape="6.11,15.42 4.14,16.10 2.73,17.24 1.88,18.84 1.60,20.91"/>
    </edge>
    <edge id=":J5_2" function="internal">
        <lane id=":J5_2_0" index="0" speed="13.89" length="12.32" shape="6.11,15.42 2.82,15.97 -0.00,16.15 -2.82,15.97 -6.11,15.42"/>
    </edge>
    <edge id=":J6_0" function="internal">
        <lane id=":J6_0_0" index="0" speed="6.55" length="7.80" shape="20.91,1.60 18.84,1.88 17.24,2.73 16.10,4.14 15.42,6.11"/>
    </edge>
    <edge id=":J6_1" function="internal">
        <lane id=":J6_1_0" index="0" speed="6.55" length="7.80" shape="15.42,-6.11 16.10,-4.14 17.24,-2.73 18.84,-1.88 20.91,-1.60"/>
    </edge>
    <edge id=":J6_2" function="internal">
        <lane id=":J6_2_0" index="0" speed="13.89" length="12.32" shape="15.42,-6.11 15.97,-2.82 16.15,0.00 15.97,2.82 15.42,6.11"/>
    </edge>
    <edge id=":J7_0" function="internal">
        <lane id=":J7_0_0" index="0" speed="6.55" length="7.80" shape="1.60,-20.91 1.88,-18.84 2.73,-17.24 4.14,-16.10 6.11,-15.42"/>
    </edge>
    <edge id=":J7_1" function="internal">
        <lane id=":J7_1_0" index="0" speed="6.55" length="7.80" shape="-6.11,-15.42 -4.14,-16.10 -2.73,-17.24 -1.88,-18.84 -1.60,-20.91"/>
    </edge>
    <edge id=":J7_2" function="internal">
        <lane id=":J7_2_0" index="0" speed="13.89" length="12.32" shape="-6.11,-15.42 -2.82,-15.97 0.00,-16.15 2.82,-15.97 6.11,-15.42"/>
    </edge>
    <edge id=":J8_0" function="internal">
        <lane id=":J8_0_0" index="0" speed="6.55" length="7.80" shape="-15.42,6.11 -16.10,4.14 -17.24,2.73 -18.84,1.88 -20.91,1.60"/>
    </edge>
    <edge id=":J8_1" function="internal">
        <lane id=":J8_1_0" index="0" speed="13.89" length="12.32" shape="-15.42,6.11 -15.97,2.82 -16.15,-0.00 -15.97,-2.82 -15.42,-6.11"/>
    </edge>
    <edge id=":J8_2" function="internal">
        <lane id=":J8_2_0" index="0" speed="6.55" length="7.80" shape="-20.91,-1.60 -18.84,-1.88 -17.24,-2.73 -16.10,-4.14 -15.42,-6.11"/>
    </edge>

    <edge id="-E0" from="J8" to="J0" priority="-1">
        <lane id="-E0_0" index="0" speed="13.89" length="79.09" shape="-20.91,1.60 -100.00,1.60"/>
    </edge>
    <edge id="-E1" from="J2" to="J6" priority="-1">
        <lane id="-E1_0" index="0" speed="13.89" length="79.09" shape="100.00,1.60 20.91,1.60"/>
    </edge>
    <edge id="-E2" from="J5" to="J3" priority="-1">
        <lane id="-E2_0" index="0" speed="13.89" length="79.09" shape="1.60,20.91 1.60,100.00"/>
    </edge>
    <edge id="-E3" from="J4" to="J7" priority="-1">
        <lane id="-E3_0" index="0" speed="13.89" length="79.09" shape="1.60,-100.00 1.60,-20.91"/>
    </edge>
    <edge id="E0" from="J0" to="J8" priority="-1">
        <lane id="E0_0" index="0" speed="13.89" length="79.09" shape="-100.00,-1.60 -20.91,-1.60"/>
    </edge>
    <edge id="E1" from="J6" to="J2" priority="-1">
        <lane id="E1_0" index="0" speed="13.89" length="79.09" shape="20.91,-1.60 100.00,-1.60"/>
    </edge>
    <edge id="E2" from="J3" to="J5" priority="-1">
        <lane id="E2_0" index="0" speed="13.89" length="79.09" shape="-1.60,100.00 -1.60,20.91"/>
    </edge>
    <edge id="E3" from="J7" to="J4" priority="-1">
        <lane id="E3_0" index="0" speed="13.89" length="79.09" shape="-1.60,-20.91 -1.60,-100.00"/>
    </edge>
    <edge id="E4" from="J6" to="J5" priority="-1" shape="15.00,0.00 13.86,5.74 10.61,10.61 5.74,13.86 0.00,15.00">
        <lane id="E4_0" index="0" speed="13.89" length="13.51" shape="15.42,6.11 15.37,6.36 11.76,11.76 6.36,15.37 6.11,15.42"/>
    </edge>
    <edge id="E5" from="J7" to="J6" priority="-1" shape="0.00,-15.00 5.74,-13.86 10.61,-10.61 13.86,-5.74 15.00,0.00">
        <lane id="E5_0" index="0" speed="13.89" length="13.51" shape="6.11,-15.42 6.36,-15.37 11.76,-11.76 15.37,-6.36 15.42,-6.11"/>
    </edge>
    <edge id="E6" from="J8" to="J7" priority="-1" shape="-15.00,0.00 -13.86,-5.74 -10.61,-10.61 -5.74,-13.86 0.00,-15.00">
        <lane id="E6_0" index="0" speed="13.89" length="13.51" shape="-15.42,-6.11 -15.37,-6.36 -11.76,-11.76 -6.36,-15.37 -6.11,-15.42"/>
    </edge>
    <edge id="E7" from="J5" to="J8" priority="-1" shape="0.00,15.00 -5.74,13.86 -10.61,10.61 -13.86,5.74 -15.00,0.00">
        <lane id="E7_0" index="0" speed="13.89" length="13.51" shape="-6.11,15.42 -6.36,15.37 -11.76,11.76 -15.37,6.36 -15.42,6.11"/>
    </edge>

    <junction id="J0" type="dead_end" x="-100.00" y="0.00" incLanes="-E0_0" intLanes="" shape="-100.00,0.00 -100.00,3.20 -100.00,0.00"/>
    <junction id="J2" type="dead_end" x="100.00" y="0.00" incLanes="E1_0" intLanes="" shape="100.00,0.00 100.00,-3.20 100.00,0.00"/>
    <junction id="J3" type="dead_end" x="0.00" y="100.00" incLanes="-E2_0" intLanes="" shape="0.00,100.00 3.20,100.00 0.00,100.00"/>
    <junction id="J4" type="dead_end" x="0.00" y="-100.00" incLanes="E3_0" intLanes="" shape="0.00,-100.00 -3.20,-100.00 0.00,-100.00"/>
    <junction id="J5" type="priority" x="0.00" y="15.00" incLanes="E2_0 E4_0" intLanes=":J5_0_0 :J5_1_0 :J5_2_0" shape="-3.20,20.91 3.20,20.91 3.56,19.02 4.01,18.29 4.63,17.71 5.44,17.27 6.42,16.99 5.79,13.83 3.83,14.92 1.91,15.56 0.00,15.78 -1.91,15.56 -3.83,14.92 -5.79,13.83 -6.42,16.99 -4.63,17.71 -4.01,18.29 -3.56,19.02 -3.29,19.89">
        <request index="0" response="100" foes="100" cont="0"/>
        <request index="1" response="000" foes="000" cont="0"/>
        <request index="2" response="000" foes="001" cont="0"/>
    </junction>
    <junction id="J6" type="priority" x="15.00" y="0.00" incLanes="-E1_0 E5_0" intLanes=":J6_0_0 :J6_1_0 :J6_2_0" shape="20.91,3.20 20.91,-3.20 19.02,-3.56 18.29,-4.01 17.71,-4.63 17.27,-5.44 16.99,-6.42 13.83,-5.79 14.92,-3.83 15.56,-1.91 15.78,-0.00 15.56,1.91 14.92,3.83 13.83,5.79 16.99,6.42 17.71,4.63 18.29,4.01 19.02,3.56 19.89,3.29">
        <request index="0" response="100" foes="100" cont="0"/>
        <request index="1" response="000" foes="000" cont="0"/>
        <request index="2" response="000" foes="001" cont="0"/>
    </junction>
    <junction id="J7" type="priority" x="0.00" y="-15.00" incLanes="-E3_0 E6_0" intLanes=":J7_0_0 :J7_1_0 :J7_2_0" shape="5.79,-13.83 6.42,-16.99 4.63,-17.71 4.01,-18.29 3.56,-19.02 3.29,-19.89 3.20,-20.91 -3.20,-20.91 -3.56,-19.02 -4.01,-18.29 -4.63,-17.71 -5.44,-17.27 -6.42,-16.99 -5.79,-13.83 -3.83,-14.92 -1.91,-15.56 -0.00,-15.78 1.91,-15.56 3.83,-14.92">
        <request index="0" response="100" foes="100" cont="0"/>
        <request index="1" response="000" foes="000" cont="0"/>
        <request index="2" response="000" foes="001" cont="0"/>
    </junction>
    <junction id="J8" type="priority" x="-15.00" y="0.00" incLanes="E7_0 E0_0" intLanes=":J8_0_0 :J8_1_0 :J8_2_0" shape="-16.99,6.42 -13.83,5.79 -14.92,3.83 -15.56,1.91 -15.78,0.00 -15.56,-1.91 -14.92,-3.83 -13.83,-5.79 -16.99,-6.42 -17.71,-4.63 -18.29,-4.01 -19.02,-3.56 -19.89,-3.29 -20.91,-3.20 -20.91,3.20 -19.02,3.56 -18.29,4.01 -17.71,4.63 -17.27,5.44">
        <request index="0" response="000" foes="000" cont="0"/>
        <request index="1" response="000" foes="100" cont="0"/>
        <request index="2" response="010" foes="010" cont="0"/>
    </junction>

    <connection from="-E1" to="E4" fromLane="0" toLane="0" via=":J6_0_0" dir="r" state="m" visibility="9.00"/>
    <connection from="-E3" to="E5" fromLane="0" toLane="0" via=":J7_0_0" dir="r" state="m" visibility="9.00"/>
    <connection from="E0" to="E6" fromLane="0" toLane="0" via=":J8_2_0" dir="r" state="m" visibility="9.00"/>
    <connection from="E2" to="E7" fromLane="0" toLane="0" via=":J5_0_0" dir="r" state="m" visibility="9.00"/>
    <connection from="E4" to="-E2" fromLane="0" toLane="0" via=":J5_1_0" dir="r" state="M"/>
    <connection from="E4" to="E7" fromLane="0" toLane="0" via=":J5_2_0" dir="s" state="M"/>
    <connection from="E5" to="E1" fromLane="0" toLane="0" via=":J6_1_0" dir="r" state="M"/>
    <connection from="E5" to="E4" fromLane="0" toLane="0" via=":J6_2_0" dir="s" state="M"/>
    <connection from="E6" to="E3" fromLane="0" toLane="0" via=":J7_1_0" dir="r" state="M"/>
    <connection from="E6" to="E5" fromLane="0" toLane="0" via=":J7_2_0" dir="s" state="M"/>
    <connection from="E7" to="-E0" fromLane="0" toLane="0" via=":J8_0_0" dir="r" state="M"/>
    <connection from="E7" to="E6" fromLane="0" toLane="0" via=":J8_1_0" dir="s" state="M"/>

    <connection from=":J5_0" to="E7" fromLane="0" toLane="0" dir="r" state="M"/>
    <connection from=":J5_1" to="-E2" fromLane="0" toLane="0" dir="r" state="M"/>
    <connection from=":J5_2" to="E7" fromLane="0" toLane="0" dir="s" state="M"/>
    <connection from=":J6_0" to="E4" fromLane="0" toLane="0" dir="r" state="M"/>
    <connection from=":J6_1" to="E1" fromLane="0" toLane="0" dir="r" state="M"/>
    <connection from=":J6_2" to="E4" fromLane="0" toLane="0" dir="s" state="M"/>
    <connection from=":J7_0" to="E5" fromLane="0" toLane="0" dir="r" state="M"/>
    <connection from=":J7_1" to="E3" fromLane="0" toLane="0" dir="r" state="M"/>
    <connection from=":J7_2" to="E5" fromLane="0" toLane="0" dir="s" state="M"/>
    <connection from=":J8_0" to="-E0" fromLane="0" toLane="0" dir="r" state="M"/>
    <connection from=":J8_1" to="E6" fromLane="0" toLane="0" dir="s" state="M"/>
    <connection from=":J8_2" to="E6" fromLane="0" toLane="0" dir="r" state="M"/>

    <roundabout nodes="J5 J6 J7 J8" edges="E4 E5 E6 E7"/>

</net>
